25102847
  -OEChem-08272418003D

 61 65  0     0  0  0  0  0  0999 V2000
   -8.4975   -3.9719    0.0428 F   0  0  0  0  0  0  0  0  0  0  0  0
   -2.1164    2.0795    1.6365 O   0  0  0  0  0  0  0  0  0  0  0  0
   -5.8044    1.8644   -0.9326 O   0  0  0  0  0  0  0  0  0  0  0  0
    2.9084   -0.1055   -1.9389 O   0  0  0  0  0  0  0  0  0  0  0  0
    7.1920    1.7784    0.0359 O   0  0  0  0  0  0  0  0  0  0  0  0
    8.1930   -0.2461    1.6555 O   0  0  0  0  0  0  0  0  0  0  0  0
   -2.2005    1.7228   -0.6897 N   0  0  0  0  0  0  0  0  0  0  0  0
   -5.1857    0.4088    0.8057 N   0  0  0  0  0  0  0  0  0  0  0  0
    4.5170   -3.0375    0.5127 N   0  0  0  0  0  0  0  0  0  0  0  0
   -4.1290    2.5391    0.5342 C   0  0  0  0  0  0  0  0  0  0  0  0
   -4.3771    3.9851    0.2200 C   0  0  0  0  0  0  0  0  0  0  0  0
   -4.5635    3.4791    1.6204 C   0  0  0  0  0  0  0  0  0  0  0  0
   -2.7018    2.0885    0.5623 C   0  0  0  0  0  0  0  0  0  0  0  0
   -5.1367    1.5674    0.0486 C   0  0  0  0  0  0  0  0  0  0  0  0
   -0.9208    1.2633   -1.0025 C   0  0  0  0  0  0  0  0  0  0  0  0
   -6.0312   -0.7096    0.6111 C   0  0  0  0  0  0  0  0  0  0  0  0
   -0.5973    0.9440   -2.3214 C   0  0  0  0  0  0  0  0  0  0  0  0
    0.0355    1.1243    0.0033 C   0  0  0  0  0  0  0  0  0  0  0  0
   -5.9510   -1.8031    1.4735 C   0  0  0  0  0  0  0  0  0  0  0  0
   -6.9449   -0.7182   -0.4428 C   0  0  0  0  0  0  0  0  0  0  0  0
    0.6823    0.4858   -2.6343 C   0  0  0  0  0  0  0  0  0  0  0  0
    1.3152    0.6660   -0.3096 C   0  0  0  0  0  0  0  0  0  0  0  0
   -6.7843   -2.9050    1.2820 C   0  0  0  0  0  0  0  0  0  0  0  0
   -7.7783   -1.8201   -0.6344 C   0  0  0  0  0  0  0  0  0  0  0  0
    1.6386    0.3468   -1.6283 C   0  0  0  0  0  0  0  0  0  0  0  0
   -7.6980   -2.9136    0.2279 C   0  0  0  0  0  0  0  0  0  0  0  0
    3.4570   -1.0549   -1.1265 C   0  0  0  0  0  0  0  0  0  0  0  0
    4.6542   -0.8261   -0.4350 C   0  0  0  0  0  0  0  0  0  0  0  0
    5.1553   -1.8589    0.3849 C   0  0  0  0  0  0  0  0  0  0  0  0
    2.7971   -2.2684   -0.9969 C   0  0  0  0  0  0  0  0  0  0  0  0
    5.3465    0.3918   -0.5450 C   0  0  0  0  0  0  0  0  0  0  0  0
    6.3445   -1.6309    1.0718 C   0  0  0  0  0  0  0  0  0  0  0  0
    6.5337    0.5926    0.1532 C   0  0  0  0  0  0  0  0  0  0  0  0
    7.0330   -0.4202    0.9626 C   0  0  0  0  0  0  0  0  0  0  0  0
    3.3644   -3.2182   -0.1719 C   0  0  0  0  0  0  0  0  0  0  0  0
    6.8485    2.8060    0.9640 C   0  0  0  0  0  0  0  0  0  0  0  0
    9.4021   -0.6255    1.0009 C   0  0  0  0  0  0  0  0  0  0  0  0
   -5.2683    4.2805   -0.3210 H   0  0  0  0  0  0  0  0  0  0  0  0
   -3.5256    4.6290    0.0295 H   0  0  0  0  0  0  0  0  0  0  0  0
   -3.8520    3.8143    2.3657 H   0  0  0  0  0  0  0  0  0  0  0  0
   -5.5782    3.4074    1.9959 H   0  0  0  0  0  0  0  0  0  0  0  0
   -2.8391    1.8009   -1.4784 H   0  0  0  0  0  0  0  0  0  0  0  0
   -4.5515    0.3378    1.5985 H   0  0  0  0  0  0  0  0  0  0  0  0
   -1.3327    1.0476   -3.1153 H   0  0  0  0  0  0  0  0  0  0  0  0
   -0.1394    1.3554    1.0449 H   0  0  0  0  0  0  0  0  0  0  0  0
   -5.2433   -1.8092    2.2986 H   0  0  0  0  0  0  0  0  0  0  0  0
   -7.0644    0.0901   -1.1506 H   0  0  0  0  0  0  0  0  0  0  0  0
    0.9292    0.2386   -3.6631 H   0  0  0  0  0  0  0  0  0  0  0  0
    2.0462    0.5843    0.4902 H   0  0  0  0  0  0  0  0  0  0  0  0
   -6.7220   -3.7567    1.9529 H   0  0  0  0  0  0  0  0  0  0  0  0
   -8.4900   -1.8285   -1.4549 H   0  0  0  0  0  0  0  0  0  0  0  0
    4.9675    1.1934   -1.1757 H   0  0  0  0  0  0  0  0  0  0  0  0
    1.8752   -2.4849   -1.5254 H   0  0  0  0  0  0  0  0  0  0  0  0
    6.7503   -2.4134    1.7117 H   0  0  0  0  0  0  0  0  0  0  0  0
    2.8950   -4.1866   -0.0338 H   0  0  0  0  0  0  0  0  0  0  0  0
    7.4612    3.6847    0.7444 H   0  0  0  0  0  0  0  0  0  0  0  0
    7.0541    2.4832    1.9895 H   0  0  0  0  0  0  0  0  0  0  0  0
    5.7937    3.0794    0.8599 H   0  0  0  0  0  0  0  0  0  0  0  0
   10.2365   -0.4210    1.6772 H   0  0  0  0  0  0  0  0  0  0  0  0
    9.5435   -0.0434    0.0848 H   0  0  0  0  0  0  0  0  0  0  0  0
    9.3932   -1.6953    0.7692 H   0  0  0  0  0  0  0  0  0  0  0  0
  1 26  1  0  0  0  0
  2 13  2  0  0  0  0
  3 14  2  0  0  0  0
  4 25  1  0  0  0  0
  4 27  1  0  0  0  0
  5 33  1  0  0  0  0
  5 36  1  0  0  0  0
  6 34  1  0  0  0  0
  6 37  1  0  0  0  0
  7 13  1  0  0  0  0
  7 15  1  0  0  0  0
  7 42  1  0  0  0  0
  8 14  1  0  0  0  0
  8 16  1  0  0  0  0
  8 43  1  0  0  0  0
  9 29  2  0  0  0  0
  9 35  1  0  0  0  0
 10 11  1  0  0  0  0
 10 12  1  0  0  0  0
 10 13  1  0  0  0  0
 10 14  1  0  0  0  0
 11 12  1  0  0  0  0
 11 38  1  0  0  0  0
 11 39  1  0  0  0  0
 12 40  1  0  0  0  0
 12 41  1  0  0  0  0
 15 17  2  0  0  0  0
 15 18  1  0  0  0  0
 16 19  2  0  0  0  0
 16 20  1  0  0  0  0
 17 21  1  0  0  0  0
 17 44  1  0  0  0  0
 18 22  2  0  0  0  0
 18 45  1  0  0  0  0
 19 23  1  0  0  0  0
 19 46  1  0  0  0  0
 20 24  2  0  0  0  0
 20 47  1  0  0  0  0
 21 25  2  0  0  0  0
 21 48  1  0  0  0  0
 22 25  1  0  0  0  0
 22 49  1  0  0  0  0
 23 26  2  0  0  0  0
 23 50  1  0  0  0  0
 24 26  1  0  0  0  0
 24 51  1  0  0  0  0
 27 28  2  0  0  0  0
 27 30  1  0  0  0  0
 28 29  1  0  0  0  0
 28 31  1  0  0  0  0
 29 32  1  0  0  0  0
 30 35  2  0  0  0  0
 30 53  1  0  0  0  0
 31 33  2  0  0  0  0
 31 52  1  0  0  0  0
 32 34  2  0  0  0  0
 32 54  1  0  0  0  0
 33 34  1  0  0  0  0
 35 55  1  0  0  0  0
 36 56  1  0  0  0  0
 36 57  1  0  0  0  0
 36 58  1  0  0  0  0
 37 59  1  0  0  0  0
 37 60  1  0  0  0  0
 37 61  1  0  0  0  0
M  END
> <PUBCHEM_COMPOUND_CID>
25102847

> <PUBCHEM_CONFORMER_RMSD>
1.2

> <PUBCHEM_CONFORMER_DIVERSEORDER>
1
44
72
52
24
81
67
77
25
50
56
75
59
37
61
13
45
85
42
73
15
54
27
55
66
87
76
68
38
10
36
5
53
51
48
64
82
7
63
19
6
40
43
60
8
69
49
74
35
70
30
62
2
83
18
32
79
33
21
16
39
71
22
47
11
31
9
23
86
78
58
29
57
12
80
34
14
41
84
46
65
3
20
26
28
4
17

> <PUBCHEM_MMFF94_PARTIAL_CHARGES>
53
1 -0.19
11 -0.2
12 -0.2
13 0.63
14 0.63
15 0.12
16 0.12
17 -0.15
18 -0.15
19 -0.15
2 -0.57
20 -0.15
21 -0.15
22 -0.15
23 -0.15
24 -0.15
25 0.08
26 0.19
27 0.08
29 0.31
3 -0.57
30 -0.15
31 -0.15
32 -0.15
33 0.08
34 0.08
35 0.16
36 0.28
37 0.28
38 0.1
39 0.1
4 -0.17
40 0.1
41 0.1
42 0.37
43 0.37
44 0.15
45 0.15
46 0.15
47 0.15
48 0.15
49 0.15
5 -0.36
50 0.15
51 0.15
52 0.15
53 0.15
54 0.15
55 0.15
6 -0.36
7 -0.55
8 -0.55
9 -0.62

> <PUBCHEM_EFFECTIVE_ROTOR_COUNT>
10.6

> <PUBCHEM_PHARMACOPHORE_FEATURES>
12
1 2 acceptor
1 3 acceptor
1 4 acceptor
1 5 acceptor
1 6 acceptor
1 7 donor
1 8 donor
1 9 acceptor
6 15 17 18 21 22 25 rings
6 16 19 20 23 24 26 rings
6 28 29 31 32 33 34 rings
6 9 27 28 29 30 35 rings

> <PUBCHEM_HEAVY_ATOM_COUNT>
37

> <PUBCHEM_ATOM_DEF_STEREO_COUNT>
0

> <PUBCHEM_ATOM_UDEF_STEREO_COUNT>
0

> <PUBCHEM_BOND_DEF_STEREO_COUNT>
0

> <PUBCHEM_BOND_UDEF_STEREO_COUNT>
0

> <PUBCHEM_ISOTOPIC_ATOM_COUNT>
0

> <PUBCHEM_COMPONENT_COUNT>
1

> <PUBCHEM_CACTVS_TAUTO_COUNT>
4

> <PUBCHEM_CONFORMER_ID>
017F09FF00000001

> <PUBCHEM_MMFF94_ENERGY>
142.2772

> <PUBCHEM_FEATURE_SELFOVERLAP>
60.936

> <PUBCHEM_SHAPE_FINGERPRINT>
10 15 17560514015009561676
10100884 174 18261953071899441179
10254770 206 18270683199220589167
10391435 84 18408600358265302295
10674148 151 10663814175175499710
10939801 23 18270682081541940566
11135926 11 13912606009616802905
11273773 118 8862938408014970989
11456790 92 18129930201863806560
12013929 94 18337675312675272840
12373685 5 18187655695465905581
12596602 18 18199751349599320512
13383668 1 18198900504368243055
14168556 18 18342174509259363184
14461889 52 18342176644370032970
14664723 55 8790893982421034527
15064981 113 12973873815465172755
15150950 15 18058445564494846456
15183329 4 10953744382954270444
15274700 208 17058923554350216922
15519825 34 18335415777045277994
15781502 593 18410283693018761642
16992727 255 9655578517341299471
19303781 99 18188771794743032551
19611394 137 18202566206571824088
20105231 36 17968936376837170922
21130935 74 18339642214344561514
21223535 225 15213293090009816653
21585480 29 18408609145024942147
21987483 16 18187079611412582274
2835447 4 18410291367803774474
3004659 81 11963689794070025844
3504750 166 17898569774434144693
3663271 9 18340488855076651328
38570 142 11672066333091656311
397830 11 18343023246584872492
4144715 1 17912937088526857840
4149490 64 17677627526386770329
42767 24 16732982016329367183
437795 139 18333456448010181695
437795 163 18410856598579630887
4394409 98 13912326784780449608
4403749 210 18201431429437183021
4408954 87 18272929474851984422
4625314 4 18338235938608398892
4874694 18 18265327322871090381
5080951 261 18201156565085164061
5109719 28 17917715746950913488
6697151 62 15285362855125705516
6703917 75 13254503301862212773
9555976 147 18200042728797743289
9689198 14 12175628394873816495

> <PUBCHEM_SHAPE_MULTIPOLES>
709.88
28.5
4.37
1.74
4.61
0.2
0.68
14.66
-11.89
-7.92
-1.44
0.44
-0.33
0.17

> <PUBCHEM_SHAPE_SELFOVERLAP>
1564.689

> <PUBCHEM_SHAPE_VOLUME>
383.6

> <PUBCHEM_COORDINATE_TYPE>
2
5
10

$$$$
