25126798
  -OEChem-08272418303D

 41 44  0     1  0  0  0  0  0999 V2000
    1.3386    0.3610   -0.2656 N   0  0  0  0  0  0  0  0  0  0  0  0
    1.0005    0.0271   -1.5227 N   0  0  0  0  0  0  0  0  0  0  0  0
   -2.4702    1.2092    1.2987 N   0  0  0  0  0  0  0  0  0  0  0  0
    2.3181    3.9805   -0.3313 N   0  0  0  0  0  0  0  0  0  0  0  0
   -5.3145   -1.1437   -0.3434 N   0  0  0  0  0  0  0  0  0  0  0  0
   -4.8109    0.5396    1.3080 N   0  0  0  0  0  0  0  0  0  0  0  0
    3.5603   -0.7941   -0.0630 C   0  0  0  0  0  0  0  0  0  0  0  0
    5.0258   -0.7067    0.3514 C   0  0  0  0  0  0  0  0  0  0  0  0
    3.0346   -1.9100    0.8344 C   0  0  0  0  0  0  0  0  0  0  0  0
    2.8105    0.5153    0.1080 C   0  0  1  0  0  0  0  0  0  0  0  0
    5.4450   -2.1613    0.5397 C   0  0  0  0  0  0  0  0  0  0  0  0
    4.1623   -2.9369    0.8448 C   0  0  0  0  0  0  0  0  0  0  0  0
    3.4946    1.6529   -0.6863 C   0  0  0  0  0  0  0  0  0  0  0  0
    0.2708    0.5273    0.5666 C   0  0  0  0  0  0  0  0  0  0  0  0
   -0.8434    0.2855   -0.1994 C   0  0  0  0  0  0  0  0  0  0  0  0
    2.8361    2.9542   -0.4882 C   0  0  0  0  0  0  0  0  0  0  0  0
   -0.3337   -0.0174   -1.4763 C   0  0  0  0  0  0  0  0  0  0  0  0
   -2.1850    0.3530    0.2906 C   0  0  0  0  0  0  0  0  0  0  0  0
   -3.1990   -0.4396   -0.2453 C   0  0  0  0  0  0  0  0  0  0  0  0
   -4.4645   -0.2905    0.3088 C   0  0  0  0  0  0  0  0  0  0  0  0
   -3.3068   -1.4198   -1.2648 C   0  0  0  0  0  0  0  0  0  0  0  0
   -4.6211   -1.8350   -1.3034 C   0  0  0  0  0  0  0  0  0  0  0  0
   -3.7481    1.2492    1.7387 C   0  0  0  0  0  0  0  0  0  0  0  0
    3.5085   -1.1283   -1.1089 H   0  0  0  0  0  0  0  0  0  0  0  0
    5.1359   -0.1652    1.2990 H   0  0  0  0  0  0  0  0  0  0  0  0
    5.6539   -0.2148   -0.3977 H   0  0  0  0  0  0  0  0  0  0  0  0
    2.0995   -2.3445    0.4677 H   0  0  0  0  0  0  0  0  0  0  0  0
    2.8600   -1.5456    1.8543 H   0  0  0  0  0  0  0  0  0  0  0  0
    2.7808    0.7961    1.1706 H   0  0  0  0  0  0  0  0  0  0  0  0
    6.1823   -2.2619    1.3425 H   0  0  0  0  0  0  0  0  0  0  0  0
    5.9033   -2.5494   -0.3774 H   0  0  0  0  0  0  0  0  0  0  0  0
    3.9951   -3.6950    0.0709 H   0  0  0  0  0  0  0  0  0  0  0  0
    4.2192   -3.4570    1.8064 H   0  0  0  0  0  0  0  0  0  0  0  0
    3.5026    1.4133   -1.7565 H   0  0  0  0  0  0  0  0  0  0  0  0
    4.5387    1.7638   -0.3752 H   0  0  0  0  0  0  0  0  0  0  0  0
    0.3969    0.7949    1.6073 H   0  0  0  0  0  0  0  0  0  0  0  0
   -0.8627   -0.2523   -2.3883 H   0  0  0  0  0  0  0  0  0  0  0  0
   -2.5277   -1.8072   -1.9051 H   0  0  0  0  0  0  0  0  0  0  0  0
   -6.3004   -1.2474   -0.1470 H   0  0  0  0  0  0  0  0  0  0  0  0
   -5.1226   -2.5630   -1.9253 H   0  0  0  0  0  0  0  0  0  0  0  0
   -3.9434    1.9453    2.5472 H   0  0  0  0  0  0  0  0  0  0  0  0
  1  2  1  0  0  0  0
  1 10  1  0  0  0  0
  1 14  1  0  0  0  0
  2 17  2  0  0  0  0
  3 18  1  0  0  0  0
  3 23  2  0  0  0  0
  4 16  3  0  0  0  0
  5 20  1  0  0  0  0
  5 22  1  0  0  0  0
  5 39  1  0  0  0  0
  6 20  2  0  0  0  0
  6 23  1  0  0  0  0
  7  8  1  0  0  0  0
  7  9  1  0  0  0  0
  7 10  1  0  0  0  0
  7 24  1  0  0  0  0
  8 11  1  0  0  0  0
  8 25  1  0  0  0  0
  8 26  1  0  0  0  0
  9 12  1  0  0  0  0
  9 27  1  0  0  0  0
  9 28  1  0  0  0  0
 10 13  1  0  0  0  0
 10 29  1  0  0  0  0
 11 12  1  0  0  0  0
 11 30  1  0  0  0  0
 11 31  1  0  0  0  0
 12 32  1  0  0  0  0
 12 33  1  0  0  0  0
 13 16  1  0  0  0  0
 13 34  1  0  0  0  0
 13 35  1  0  0  0  0
 14 15  2  0  0  0  0
 14 36  1  0  0  0  0
 15 17  1  0  0  0  0
 15 18  1  0  0  0  0
 17 37  1  0  0  0  0
 18 19  2  0  0  0  0
 19 20  1  0  0  0  0
 19 21  1  0  0  0  0
 21 22  2  0  0  0  0
 21 38  1  0  0  0  0
 22 40  1  0  0  0  0
 23 41  1  0  0  0  0
M  END
> <PUBCHEM_COMPOUND_CID>
25126798

> <PUBCHEM_CONFORMER_RMSD>
0.8

> <PUBCHEM_CONFORMER_DIVERSEORDER>
1
85
16
58
76
69
43
79
8
49
27
59
24
67
44
29
28
46
72
91
9
41
26
7
96
65
110
33
60
35
100
11
22
62
86
55
42
101
36
94
37
52
32
89
18
45
53
64
74
10
17
73
102
75
5
71
109
25
61
104
40
97
12
93
56
31
68
19
87
80
98
99
63
38
14
30
66
92
83
81
88
95
2
3
82
21
48
13
20
34
57
4
6
78
54
51
47
107
15
23
39
90
105
50
84
106
108
77
70
103

> <PUBCHEM_MMFF94_PARTIAL_CHARGES>
23
1 0.31
10 0.26
13 0.2
14 -0.3
15 -0.05
16 0.36
17 0.14
18 0.36
2 -0.71
20 0.11
21 -0.15
22 -0.3
23 0.47
3 -0.62
36 0.15
37 0.15
38 0.15
39 0.27
4 -0.56
40 0.15
41 0.15
5 0.03
6 -0.57

> <PUBCHEM_EFFECTIVE_ROTOR_COUNT>
5

> <PUBCHEM_PHARMACOPHORE_FEATURES>
9
1 2 acceptor
1 4 acceptor
1 5 donor
3 3 6 23 cation
3 5 6 20 cation
5 1 2 14 15 17 rings
5 5 19 20 21 22 rings
5 7 8 9 11 12 rings
6 3 6 18 19 20 23 rings

> <PUBCHEM_HEAVY_ATOM_COUNT>
23

> <PUBCHEM_ATOM_DEF_STEREO_COUNT>
1

> <PUBCHEM_ATOM_UDEF_STEREO_COUNT>
0

> <PUBCHEM_BOND_DEF_STEREO_COUNT>
0

> <PUBCHEM_BOND_UDEF_STEREO_COUNT>
0

> <PUBCHEM_ISOTOPIC_ATOM_COUNT>
0

> <PUBCHEM_COMPONENT_COUNT>
1

> <PUBCHEM_CACTVS_TAUTO_COUNT>
3

> <PUBCHEM_CONFORMER_ID>
017F678E00000001

> <PUBCHEM_MMFF94_ENERGY>
38.5231

> <PUBCHEM_FEATURE_SELFOVERLAP>
45.95

> <PUBCHEM_SHAPE_FINGERPRINT>
10319926 262 17131557120102301094
10366900 7 18113627819466770740
10912923 1 18272939353354573825
12107183 9 18196659484226424425
12236239 1 18343301461523026362
12596602 18 17846492622050643738
12616971 3 18412270532057359377
12633257 1 18271813380259174831
12670546 56 18272085010959931017
12788726 201 17774451597954143915
12839892 36 17704069573336966703
13009979 54 18059582351884736376
13167823 11 18413671322508387695
13533116 47 18335139834149851115
13544653 18 18041000579547365542
13583140 156 18190189055838856601
13911852 28 18118679925220512090
13914758 101 18336821980267695261
13955234 65 18264486355352838392
14178342 30 17845662425914347359
14386348 63 16443070482197701402
14739800 52 17559383863575895408
14849402 71 18270958072768911896
15142526 21 17764305446261042184
15250474 111 18272082850803027647
15788980 27 18259984851421354391
17349148 13 18060137643557871999
17857418 61 18413101749546707811
17870717 6 15140966123733359091
1813 80 18336555897963280326
18681886 176 17417822802520070436
19377110 9 18129948999817348345
20645477 70 17822286903360653202
21033648 29 17168133589886492661
21065198 48 18343865523783189576
21728266 224 17988915678816249391
2255824 54 18410015481190931268
22950370 63 18338238138127610838
23366157 5 17984975162228556945
23557571 272 16486430805708203337
23559900 14 18262232339130072624
25147074 1 18201445804439560353
3004659 81 18131358526352987637
312423 11 18342745147294064357
314194 84 18187086109809221386
345986 75 18117548532049913976
3633792 109 18263626464382591263
3737641 26 17975977566710833802
474 4 18047474705659526028
5104073 3 17988648536155715323
5312544 6 18267866270986106700
573450 72 18131913745787431475
67856867 119 18271523203573675864
6823239 73 15285647615952603524
7970288 3 18192424183059965370
9981440 41 17617091847160344408

> <PUBCHEM_SHAPE_MULTIPOLES>
443.44
12.39
3
1.35
2.62
1.82
-0.02
-6.55
-1.94
-4.4
0.09
1.24
0
-2.89

> <PUBCHEM_SHAPE_SELFOVERLAP>
970.048

> <PUBCHEM_SHAPE_VOLUME>
238.1

> <PUBCHEM_COORDINATE_TYPE>
2
5
10

$$$$
